Base_HO_2024/Base_HO_Med_2024_JUNIO_v33.raw
0,   100.00, 33, 0, 1, 60.00     / PSS(R)E 33 RAW created by rawd33  THU, JUN 27 2024  12:20


  3001,'CJN U01     ',  13.8000,3,   3,   3,   1,1.03000,   0.0000,1.10000,0.90000,1.10000,0.90000
  3002,'CJN U02     ',  13.8000,2,   3,   3,   1,1.03000,   0.0715,1.10000,0.90000,1.10000,0.90000
  3003,'CJN U03     ',  13.8000,2,   3,   3,   1,1.03000,   0.0715,1.10000,0.90000,1.10000,0.90000
  3004,'CJN U04     ',  13.8000,2,   3,   3,   1,1.02000,   0.1078,1.10000,0.90000,1.10000,0.90000
  3005,'CRL U01     ',  13.8000,2,   3,   3,   1,1.00000,  -5.1957,1.10000,0.90000,1.10000,0.90000
  3006,'CRL U02     ',  13.8000,2,   3,   3,   1,1.00000,  -5.1929,1.10000,0.90000,1.10000,0.90000
  3007,'RLN U01     ',  13.8000,2,   3,   3,   1,1.01598,  -4.5480,1.10000,0.90000,1.10000,0.90000
  3008,'RLN U02     ',  13.8000,2,   3,   3,   1,1.01598,  -4.5480,1.10000,0.90000,1.10000,0.90000
  3009,'RLN U03     ',  13.8000,2,   3,   3,   1,1.01287,  -4.9168,1.10000,0.90000,1.10000,0.90000
  3010,'RLN U04     ',  13.8000,2,   3,   3,   1,1.01344,  -5.3545,1.10000,0.90000,1.10000,0.90000
  3011,'NIS U01     ',  13.8000,2,   3,   3,   1,1.02000,   4.4854,1.10000,0.90000,1.10000,0.90000
  3012,'LUV B241    ',  13.8000,2,   3,   5,   2,0.98797,  -1.6703,1.10000,0.90000,1.10000,0.90000
  3013,'LUV B242    ',  13.8000,2,   3,   5,   2,0.98797,  -1.6703,1.10000,0.90000,1.10000,0.90000
  3014,'LUV B243    ',  13.8000,2,   3,   5,   2,0.98797,  -1.6703,1.10000,0.90000,1.10000,0.90000
  3015,'LSL U01     ',  13.8000,2,   3,   5,   2,1.01267,  -1.6703,1.10000,0.90000,1.10000,0.90000
  3016,'MFL B212    ',  13.8000,1,   3,   4,   1,1.00127, -19.1508,1.10000,0.90000,1.10000,0.90000
  3017,'LPT B202    ',  13.8000,2,   3,   1,   1,1.00219, -12.2763,1.10000,0.90000,1.10000,0.90000
  3018,'LPT B201    ',  13.8000,2,   3,   1,   1,1.00225,  49.5546,1.10000,0.90000,1.10000,0.90000
  3019,'ECH B274    ',  13.8000,2,   3,   1,   2,1.02050, -10.5561,1.10000,0.90000,1.10000,0.90000
  3020,'TAL B217    ',  13.8000,2,   3,   1,   1,1.01000,  -0.9663,1.10000,0.90000,1.10000,0.90000
  3021,'TSZ B257    ',  13.8000,2,   3,   1,   1,0.99921,  -4.6666,1.10000,0.90000,1.10000,0.90000
  3022,'LVI B238    ',  13.8000,1,   3,   1,   1,0.99762, -11.5037,1.10000,0.90000,1.10000,0.90000
  3023,'CTE B209    ',  13.8000,2,   3,   2,   1,0.96956,  -9.4947,1.10000,0.90000,1.10000,0.90000
  3024,'PGR B318    ',  34.5000,1,   3,   1,   1,1.00034, -12.6349,1.10000,0.90000,1.10000,0.90000
  3025,'CJL 4.16KV  ',   4.1600,1,   3,   3,   2,1.00447,  64.2108,1.10000,0.90000,1.10000,0.90000
  3026,'SFE B215    ',  13.8000,1,   3,   4,   1,0.99278, -18.1969,1.10000,0.90000,1.10000,0.90000
  3027,'CTE B307    ',  34.5000,1,   3,   2,   1,0.99304,  21.3393,1.10000,0.90000,1.10000,0.90000
  3028,'SMT B234    ',  13.8000,1,   3,   1,   1,0.98786, -15.2913,1.10000,0.90000,1.10000,0.90000
  3029,'CRL B501    ', 138.0000,1,   3,   3,   1,0.99792,  23.7860,1.10000,0.90000,1.10000,0.90000
  3030,'SUY B515    ', 138.0000,1,   3,   4,   1,0.99010,  18.2473,1.10000,0.90000,1.10000,0.90000
  3031,'CDA B530    ', 138.0000,1,   3,   4,   1,0.98570,  18.1995,1.10000,0.90000,1.10000,0.90000
  3032,'CJN B601    ', 230.0000,1,   3,   3,   1,0.99593,  26.3826,1.10000,0.90000,1.10000,0.90000
  3033,'SUY B612    ', 230.0000,1,   3,   4,   1,0.96412,  23.1023,1.10000,0.90000,1.10000,0.90000
  3034,'PAV B620    ', 230.0000,1,   3,   5,   1,1.01267,  28.3297,1.10000,0.90000,1.10000,0.90000
  3035,'BER B205    ',  13.8000,1,   3,   1,   1,0.99982, -14.0544,1.10000,0.90000,1.10000,0.90000
  3036,'BER B410    ',  69.0000,1,   3,   1,   1,1.00846,  25.0474,1.10000,0.90000,1.10000,0.90000
  3037,'BER B507    ', 138.0000,1,   3,   1,   1,0.97632,  22.7004,1.10000,0.90000,1.10000,0.90000
  3038,'PGR B509    ', 138.0000,1,   3,   1,   1,1.01234,  23.4032,1.10000,0.90000,1.10000,0.90000
  3039,'BIJ 4.16KV  ',   4.1600,1,   3,   1,   2,0.99476,  -9.2376,1.10000,0.90000,1.10000,0.90000
  3040,'BIJ B562    ', 138.0000,1,   3,   1,   1,0.99225,  24.8631,1.10000,0.90000,1.10000,0.90000
  3042,'BOR B332    ',  34.5000,2,   3,   2,   1,1.00767,  15.7203,1.10000,0.90000,1.10000,0.90000
  3043,'BOR B571    ', 138.0000,1,   3,   2,   1,0.97756,  23.5093,1.10000,0.90000,1.10000,0.90000
  3044,'BVI B218    ',  13.8000,1,   3,   1,   1,1.00664, -13.1893,1.10000,0.90000,1.10000,0.90000
  3045,'BVI B528    ', 138.0000,1,   3,   1,   1,0.97376,  22.4429,1.10000,0.90000,1.10000,0.90000
  3046,'CCE B330    ',  34.5000,1,   3,   2,   1,1.00311,  -8.6594,1.10000,0.90000,1.10000,0.90000
  3047,'CCE B565    ', 138.0000,1,   3,   2,   1,0.98961,  25.9898,1.10000,0.90000,1.10000,0.90000
  3048,'CHM B239    ',  13.8000,1,   3,   1,   1,1.02050, -10.5561,1.10000,0.90000,1.10000,0.90000
  3049,'CHM B539    ', 138.0000,1,   3,   1,   1,0.99077,  24.3491,1.10000,0.90000,1.10000,0.90000
  3050,'BVI B219    ',  13.8000,1,   3,   1,   1,0.99996, -14.8991,1.10000,0.90000,1.10000,0.90000
  3051,'CIR B221    ',  13.8000,1,   3,   1,   1,0.99629, -14.4457,1.10000,0.90000,1.10000,0.90000
  3052,'CIR B537    ', 138.0000,1,   3,   1,   1,0.97579,  22.4774,1.10000,0.90000,1.10000,0.90000
  3053,'CRL B301    ',  34.5000,1,   3,   3,   1,1.02077,  18.1998,1.10000,0.90000,1.10000,0.90000
  3054,'CRL 69KV    ',  69.0000,1,   3,   3,   1,1.01326,  26.3092,1.10000,0.90000,1.10000,0.90000
  3055,'CTE B513    ', 138.0000,1,   3,   2,   1,0.97102,  23.5129,1.10000,0.90000,1.10000,0.90000
  3056,'CYG B316    ',  34.5000,1,   3,   4,   1,0.98774, -15.5545,1.10000,0.90000,1.10000,0.90000
  3057,'DAN B334    ',  34.5000,1,   3,   4,   1,0.99613,   0.0818,1.10000,0.90000,1.10000,0.90000
  3058,'DAN B432    ',  69.0000,1,   3,   4,   1,0.94131,   3.2177,1.10000,0.90000,1.10000,0.90000
  3059,'ELC B560    ', 138.0000,1,   3,   1,   1,0.99934,  25.3425,1.10000,0.90000,1.10000,0.90000
  3060,'CYG B536    ', 138.0000,1,   3,   4,   1,0.96841,  18.3447,1.10000,0.90000,1.10000,0.90000
  3061,'GMC B347    ',  34.5000,1,   3,   4,   1,0.99832,  -2.7767,1.10000,0.90000,1.10000,0.90000
  3062,'GMC B437    ',  69.0000,1,   3,   4,   1,1.00141,   2.3939,1.10000,0.90000,1.10000,0.90000
  3063,'GUA B337    ',  34.5000,1,   3,   2,   1,0.98846,  18.6700,1.10000,0.90000,1.10000,0.90000
  3064,'GUA B537    ', 138.0000,1,   3,   2,   1,1.00034,  22.6381,1.10000,0.90000,1.10000,0.90000
  3065,'HYO U01     ',   0.4800,4,   3,   1,   2,1.00000,   0.0000,1.10000,0.90000,1.10000,0.90000
  3066,'ISL B334    ',  34.5000,1,   3,   2,   1,0.99136, -11.3253,1.10000,0.90000,1.10000,0.90000
  3067,'ISL B520    ', 138.0000,1,   3,   2,   1,0.97315,  23.7908,1.10000,0.90000,1.10000,0.90000
  3068,'JUT B337    ',  34.5000,2,   3,   4,   1,1.02000,  -7.1864,1.10000,0.90000,1.10000,0.90000
  3069,'JUT B438    ',  69.0000,1,   3,   4,   1,1.00728,   0.2643,1.10000,0.90000,1.10000,0.90000
  3070,'LFL B301    ',  34.5000,1,   3,   3,   1,1.02155,  31.6113,1.10000,0.90000,1.10000,0.90000
  3071,'LFL B434    ',  69.0000,1,   3,   3,   1,1.02515,  35.0490,1.10000,0.90000,1.10000,0.90000
  3073,'LIM 69KV    ',  69.0000,1,   3,   1,   1,0.98942,  19.3994,1.10000,0.90000,1.10000,0.90000
  3074,'LLN B213    ',  13.8000,1,   3,   4,   1,0.99828, -23.0709,1.10000,0.90000,1.10000,0.90000
  3075,'LLN B419    ',  69.0000,1,   3,   4,   1,1.02432,  12.3243,1.10000,0.90000,1.10000,0.90000
  3076,'LNZ B226    ',  13.8000,1,   3,   4,   1,1.00633, -22.6009,1.10000,0.90000,1.10000,0.90000
  3077,'LNZ B425    ',  69.0000,1,   3,   4,   1,1.02441,  12.2461,1.10000,0.90000,1.10000,0.90000
  3078,'LPT B503    ', 138.0000,1,   3,   1,   1,0.97431,  22.5082,1.10000,0.90000,1.10000,0.90000
  3079,'LSL B628    ', 230.0000,1,   3,   5,   1,1.01267,  28.3297,1.10000,0.90000,1.10000,0.90000
  3080,'LUV B621    ', 230.0000,1,   3,   5,   1,1.01267,  28.3297,1.10000,0.90000,1.10000,0.90000
  3081,'MAS B352    ',  34.5000,1,   3,   1,   1,0.99915,  20.5656,1.10000,0.90000,1.10000,0.90000
  3082,'MAS B544    ', 138.0000,1,   3,   1,   1,0.99599,  24.9862,1.10000,0.90000,1.10000,0.90000
  3083,'MCH B311    ',  34.5000,1,   3,   3,   1,0.98822,  14.8988,1.10000,0.90000,1.10000,0.90000
  3084,'MCH 2.4KV   ',   2.4000,1,   3,   3,   1,0.97228, -19.1717,1.10000,0.90000,1.10000,0.90000
  3085,'MFL B523    ', 138.0000,1,   3,   4,   1,0.98456,  18.0441,1.10000,0.90000,1.10000,0.90000
  3086,'MOR B335    ',  34.5000,1,   3,   1,   1,0.99624,  14.6940,1.10000,0.90000,1.10000,0.90000
  3087,'MOR B435    ',  69.0000,1,   3,   1,   1,0.98542,  18.4872,1.10000,0.90000,1.10000,0.90000
  3088,'NIS B310    ',  34.5000,1,   3,   3,   1,1.00292,  34.0470,1.10000,0.90000,1.10000,0.90000
  3089,'NIS B439    ',  69.0000,1,   3,   3,   1,1.01804,  32.7857,1.10000,0.90000,1.10000,0.90000
  3090,'PAV B363    ',  34.5000,2,   3,   5,   1,1.00000,  25.9601,1.10000,0.90000,1.10000,0.90000
  3091,'PAZ B525    ', 138.0000,1,   3,   4,   1,0.96975,  18.6982,1.10000,0.90000,1.10000,0.90000
  3092,'PAZ B125    ',   4.1600,1,   3,   4,   2,0.99436,  48.1149,1.10000,0.90000,1.10000,0.90000
  3093,'LOS PLANES  ',   0.4000,4,   3,   4,   2,1.00000,   0.0000,1.10000,0.90000,1.10000,0.90000
  3094,'PGR B422    ',  69.0000,1,   3,   1,   1,0.99906,  20.3350,1.10000,0.90000,1.10000,0.90000
  3095,'PGR B603    ', 230.0000,1,   3,   1,   1,0.96462,  25.0284,1.10000,0.90000,1.10000,0.90000
  3096,'BER B206    ',  13.8000,1,   3,   1,   1,0.99548, -13.6733,1.10000,0.90000,1.10000,0.90000
  3097,'RGU B518    ', 138.0000,1,   3,   2,   1,0.97874,  24.4836,1.10000,0.90000,1.10000,0.90000
  3098,'RLN B521    ', 138.0000,1,   3,   1,   1,1.00486,  24.1543,1.10000,0.90000,1.10000,0.90000
  3099,'SFE B303    ',  34.5000,1,   3,   4,   1,0.99649,  13.8364,1.10000,0.90000,1.10000,0.90000
  3100,'SFE B404    ',  69.0000,1,   3,   4,   1,1.02943,  12.4000,1.10000,0.90000,1.10000,0.90000
  3101,'SFE B505    ', 138.0000,1,   3,   4,   1,0.98180,  18.0472,1.10000,0.90000,1.10000,0.90000
  3102,'SGT B374    ',  34.5000,1,   3,   4,   1,0.99519,  10.4524,1.10000,0.90000,1.10000,0.90000
  3103,'SGT 138KV   ', 138.0000,1,   3,   4,   1,0.97274,  19.5265,1.10000,0.90000,1.10000,0.90000
  3104,'SIS B309    ',  34.5000,2,   3,   2,   1,1.01000, -11.3745,1.10000,0.90000,1.10000,0.90000
  3105,'SIS B548    ', 138.0000,1,   3,   2,   1,0.97202,  23.7835,1.10000,0.90000,1.10000,0.90000
  3106,'SLU B321    ',  34.5000,2,   3,   5,   1,1.00648,  31.4811,1.10000,0.90000,1.10000,0.90000
  3108,'SMT B534    ', 138.0000,1,   3,   1,   1,0.99371,  23.2276,1.10000,0.90000,1.10000,0.90000
  3109,'SRS B331    ',  34.5000,4,   3,   3,   1,1.00000,   0.0000,1.10000,0.90000,1.10000,0.90000
  3110,'PNU 69KV    ',  69.0000,1,   3,   4,   1,1.02648,  12.4498,1.10000,0.90000,1.10000,0.90000
  3111,'SRS B433    ',  69.0000,1,   3,   3,   1,1.03670,  37.8686,1.10000,0.90000,1.10000,0.90000
  3112,'SUY B203    ',  13.8000,1,   3,   4,   1,0.99333, -19.0050,1.10000,0.90000,1.10000,0.90000
  3113,'SUY B418    ',  69.0000,1,   3,   4,   1,1.03073,  13.0112,1.10000,0.90000,1.10000,0.90000
  3114,'BAB U01     ',  13.8000,2,   3,   4,   2,1.03000, -35.8228,1.10000,0.90000,1.10000,0.90000
  3115,'SMR U01     ',  13.8000,4,   3,   4,   1,1.00000,   0.0000,1.10000,0.90000,1.10000,0.90000
  3116,'TAL B404    ',  69.0000,1,   3,   1,   1,1.01000,  29.0337,1.10000,0.90000,1.10000,0.90000
  3117,'TEL B305    ',  34.5000,1,   3,   2,   1,0.99552,  15.5013,1.10000,0.90000,1.10000,0.90000
  3118,'TEL B511    ', 138.0000,1,   3,   2,   1,0.98599,  22.0475,1.10000,0.90000,1.10000,0.90000
  3119,'TON B228    ',  13.8000,1,   3,   4,   1,0.99291, -12.1752,1.10000,0.90000,1.10000,0.90000
  3120,'TON B535    ', 138.0000,1,   3,   4,   1,0.99076,  18.6882,1.10000,0.90000,1.10000,0.90000
  3121,'TSZ B226    ',  13.8000,1,   3,   1,   1,0.99978,  51.0751,1.10000,0.90000,1.10000,0.90000
  3122,'TSZ B526    ', 138.0000,1,   3,   1,   1,0.99921,  25.3334,1.10000,0.90000,1.10000,0.90000
  3123,'VNU B520    ', 138.0000,1,   3,   1,   1,0.97739,  22.9038,1.10000,0.90000,1.10000,0.90000
  3124,'VNU B322    ',  34.5000,2,   3,   1,   1,1.00095, -11.6405,1.10000,0.90000,1.10000,0.90000
  3125,'RBL U01     ',   4.1600,2,   3,   3,   2,1.02010,  -9.7184,1.10000,0.90000,1.10000,0.90000
  3126,'YOR B336    ',  34.5000,1,   3,   1,   1,0.98834,  12.0420,1.10000,0.90000,1.10000,0.90000
  3127,'ZAM B331    ',  34.5000,1,   3,   4,   1,1.00029,   6.0214,1.10000,0.90000,1.10000,0.90000
  3128,'ZAM B431    ',  69.0000,1,   3,   4,   1,0.97972,   8.3640,1.10000,0.90000,1.10000,0.90000
  3129,'ZAC U01     ',   0.4800,2,   3,   3,   2,1.00000,   4.8993,1.10000,0.90000,1.10000,0.90000
  3130,'CDA B210    ',  13.8000,1,   3,   4,   1,0.99623, -18.0315,1.10000,0.90000,1.10000,0.90000
  3131,'SUY R212    ',  13.8000,1,   3,   4,   1,0.99310, -12.0886,1.10000,0.90000,1.10000,0.90000
  3132,'SUY R213    ',  13.8000,1,   3,   4,   1,0.99306, -12.0843,1.10000,0.90000,1.10000,0.90000
  3133,'PNU 13.8KV  ',  13.8000,1,   3,   4,   1,1.00670, -21.0715,1.10000,0.90000,1.10000,0.90000
  3134,'LPT B244    ',  13.8000,1,   3,   1,   1,1.00047, -12.5364,1.10000,0.90000,1.10000,0.90000
  3135,'SFE 34.5KV  ',  34.5000,1,   3,   4,   1,1.01013,  12.4000,1.10000,0.90000,1.10000,0.90000
  3136,'BER 13.8KV  ',  13.8000,1,   3,   1,   1,0.99875,  -7.7349,1.10000,0.90000,1.10000,0.90000
  3137,'CIR B222    ',  13.8000,1,   3,   1,   1,1.00422, -14.3882,1.10000,0.90000,1.10000,0.90000
  3139,'GEV U01     ',   0.4800,2,   3,   1,   2,1.01000, -40.6849,1.10000,0.90000,1.10000,0.90000
  3140,'RET B257    ',  13.8000,1,   3,   1,   1,1.00121, -12.2857,1.10000,0.90000,1.10000,0.90000
  3141,'DAN B333    ',  34.5000,2,   3,   4,   1,0.99613,   0.0818,1.10000,0.90000,1.10000,0.90000
  3142,'ENF U01     ',   0.4800,2,   3,   1,   2,1.00789, -40.4352,1.10000,0.90000,1.10000,0.90000
  3143,'CHU U01     ',  13.8000,2,   3,   1,   2,1.00789, -40.4352,1.10000,0.90000,1.10000,0.90000
  3144,'LGL U01     ',  13.8000,2,   3,   2,   1,1.01000, -41.3745,1.10000,0.90000,1.10000,0.90000
  3145,'CUY 69      ',  69.0000,1,   3,   1,   2,0.98483,  18.0906,1.10000,0.90000,1.10000,0.90000
  3146,'CUY U01     ',  13.8000,2,   3,   1,   2,1.00000, -10.4341,1.10000,0.90000,1.10000,0.90000
  3147,'SRS B331    ',  34.5000,4,   3,   3,   1,1.00000,   0.0000,1.10000,0.90000,1.10000,0.90000
  3148,'NIC U05     ',   0.4800,2,   3,   2,   2,1.00000,  -6.7074,1.10000,0.90000,1.10000,0.90000
  3149,'RLQ B056    ',   0.4150,1,   3,   3,   2,1.00297, -23.1702,1.10000,0.90000,1.10000,0.90000
  3150,'LNZ B227    ',  13.8000,1,   3,   4,   1,1.00633, -22.6009,1.10000,0.90000,1.10000,0.90000
  3151,'SGT 34.5KV  ',  34.5000,1,   3,   4,   1,0.97236,  12.7048,1.10000,0.90000,1.10000,0.90000
  3152,'SRS B332    ',  34.5000,1,   3,   3,   1,1.00297,   6.1212,1.10000,0.90000,1.10000,0.90000
  3153,'CYM U01     ',   4.1600,2,   3,   1,   2,0.99887,  -8.0599,1.10000,0.90000,1.10000,0.90000
  3154,'SCA U01     ',   4.1600,2,   3,   1,   2,0.99915,  -9.4344,1.10000,0.90000,1.10000,0.90000
  3155,'TON B610    ', 230.0000,1,   3,   4,   1,0.97968,  24.3564,1.10000,0.90000,1.10000,0.90000
  3156,'NIV U01     ',   0.4800,2,   3,   1,   2,1.02077, -11.8002,1.10000,0.90000,1.10000,0.90000
  3157,'CCE B 329   ',  34.5000,1,   3,   2,   1,1.00311,  -8.6594,1.10000,0.90000,1.10000,0.90000
  3158,'COR U01     ',   4.1600,2,   3,   1,   2,0.99902,  -8.5107,1.10000,0.90000,1.10000,0.90000
  3159,'VNU B323    ',  34.5000,1,   3,   1,   1,1.00095, -11.6405,1.10000,0.90000,1.10000,0.90000
  3160,'RET 138KV   ', 138.0000,1,   3,   1,   1,0.98143,  22.4058,1.10000,0.90000,1.10000,0.90000
  3161,'RET B256    ',  13.8000,1,   3,   1,   1,1.00265, -13.9965,1.10000,0.90000,1.10000,0.90000
  3162,'LES U01     ',   4.1600,2,   3,   4,   2,0.98765, -44.7714,1.10000,0.90000,1.10000,0.90000
  3163,'CPA U01     ',   4.1600,2,   3,   1,   2,1.02077, -11.8002,1.10000,0.90000,1.10000,0.90000
  3164,'ISL B331    ',  34.5000,1,   3,   2,   1,0.99182, -12.4267,1.10000,0.90000,1.10000,0.90000
  3165,'PEB U01     ',   4.1600,2,   3,   3,   2,1.02005,  -9.6500,1.10000,0.90000,1.10000,0.90000
  3166,'APC U01     ',   0.4800,2,   3,   3,   2,1.00000, -13.3616,1.10000,0.90000,1.10000,0.90000
  3167,'IHS U01     ',   0.4800,2,   3,   1,   2,1.00000, -38.7773,1.10000,0.90000,1.10000,0.90000
  3168,'ECO U01     ',   0.4800,2,   3,   1,   2,0.98815,  -9.8750,1.10000,0.90000,1.10000,0.90000
  3169,'CYR U01     ',   4.1600,2,   3,   4,   1,1.00000, -42.0603,1.10000,0.90000,1.10000,0.90000
  3170,'CUY 69KV    ',  69.0000,1,   3,   1,   1,0.98375,  18.0282,1.10000,0.90000,1.10000,0.90000
  3171,'CRN U01     ',  13.8000,2,   3,   4,   2,1.01904, -34.7051,1.10000,0.90000,1.10000,0.90000
  3173,'LEA U01     ',   4.1600,2,   3,   1,   2,0.99552, -14.4987,1.10000,0.90000,1.10000,0.90000
  3174,'MGG U01     ',   4.1600,2,   3,   1,   2,0.99552, -14.4987,1.10000,0.90000,1.10000,0.90000
  3175,'YOD U01     ',   4.1600,2,   3,   1,   2,0.98834, -17.9580,1.10000,0.90000,1.10000,0.90000
  3176,'ACE U01     ',   4.1600,2,   3,   2,   2,1.00476,  -9.9296,1.10000,0.90000,1.10000,0.90000
  3177,'LAU U01     ',   4.1600,2,   3,   1,   2,0.99915,  -9.4344,1.10000,0.90000,1.10000,0.90000
  3178,'TER T537    ',  13.8000,1,   3,   1,   1,0.97742, -11.7405,1.10000,0.90000,1.10000,0.90000
  3179,'TER LVI 138 ', 138.0000,1,   3,   1,   1,0.98464,  23.7149,1.10000,0.90000,1.10000,0.90000
  3180,'CAR B540    ', 138.0000,1,   3,   1,   1,0.99140,  23.6423,1.10000,0.90000,1.10000,0.90000
  3181,'CAR B340    ',  34.5000,2,   3,   1,   1,0.99570, -11.9896,1.10000,0.90000,1.10000,0.90000
  3182,'SJP U01     ',  13.8000,2,   3,   2,   2,0.99304,  -8.6607,1.10000,0.90000,1.10000,0.90000
  3183,'LEC B619    ', 230.0000,1,   3,   3,   1,1.00169,  24.2652,1.10000,0.90000,1.10000,0.90000
  3184,'LEC B309    ',  34.5000,1,   3,   3,   1,0.97708, -10.5295,1.10000,0.90000,1.10000,0.90000
  3185,'NCO B564    ', 138.0000,1,   3,   1,   1,0.97071,  22.8963,1.10000,0.90000,1.10000,0.90000
  3186,'NCO B364    ',  34.5000,1,   3,   1,   1,1.00789, -10.4352,1.10000,0.90000,1.10000,0.90000
  3187,'CYG B315    ',  34.5000,2,   3,   4,   1,0.99244, -19.1198,1.10000,0.90000,1.10000,0.90000
  3188,'PSM 230     ', 230.0000,1,   3,   5,   2,1.02679,  29.9052,1.10000,0.90000,1.10000,0.90000
  3190,'F-LEC-PAN   ', 230.0000,1,   3,   3,   1,1.00410,  24.2439,1.10000,0.90000,1.10000,0.90000
  3193,'EL ESTADIO  ', 138.0000,1,   3,   1,   1,0.97771,  22.6964,1.10000,0.90000,1.10000,0.90000
  3194,'EST CARGA   ',  13.8000,1,   3,   1,   1,0.99587, -11.0226,1.10000,0.90000,1.10000,0.90000
  3201,'SOLAR NAC1  ',  34.5000,2,   3,   5,   2,1.04000,  65.1320,1.10000,0.90000,1.10000,0.90000
  3203,'SPS B558    ', 138.0000,1,   3,   1,   1,0.98318,  23.2929,1.10000,0.90000,1.10000,0.90000
  3204,'AGP B556    ', 138.0000,1,   3,   1,   1,0.99194,  24.4601,1.10000,0.90000,1.10000,0.90000
  3205,'ENR B246    ',  13.8000,2,   3,   1,   2,1.01000,  60.9411,1.10000,0.90000,1.10000,0.90000
  3206,'ENR B247    ',  13.8000,2,   3,   1,   2,1.01000,  60.9411,1.10000,0.90000,1.10000,0.90000
  3207,'ENR B248    ',  13.8000,2,   3,   1,   2,1.01000,  60.9411,1.10000,0.90000,1.10000,0.90000
  3208,'ENR B249    ',  13.8000,2,   3,   1,   2,1.01000,  60.9411,1.10000,0.90000,1.10000,0.90000
  3209,'ENR B250    ',  13.8000,2,   3,   1,   2,0.96715,  54.4601,1.10000,0.90000,1.10000,0.90000
  3210,'PSM TER9    ',   0.7000,2,   3,   5,   2,1.00511,   1.6744,1.10000,0.90000,1.10000,0.90000
  3211,'NNC B639    ', 230.0000,1,   3,   5,   1,1.02515,  29.9660,1.10000,0.90000,1.10000,0.90000
  3213,'BCO 138     ', 138.0000,1,   3,   1,   1,0.99291,  24.9376,1.10000,0.90000,1.10000,0.90000
  3214,'BCO 13.8    ',  13.8000,2,   3,   1,   1,0.99814,  -0.3552,1.10000,0.90000,1.10000,0.90000
  3215,'MAT I 4.16  ',   4.2000,2,   3,   1,   1,0.99524,  46.8576,1.10000,0.90000,1.10000,0.90000
  3218,'BETUL 0.48  ',   0.5000,2,   3,   5,   1,0.99029, -10.6353,1.10000,0.90000,1.10000,0.90000
...
0 / END OF BUS DATA, BEGIN LOAD DATA
  3016,'1 ',1,   3,   4,     5.066,     0.800,     0.000,     0.000,     0.000,     0.000,   1,1,0
  3016,'2 ',1,   3,   4,    11.137,     5.880,     0.000,     0.000,     0.000,     0.000,   1,1,0
  3016,'3 ',1,   3,   4,     6.058,     2.027,     0.000,     0.000,     0.000,     0.000,   1,1,0
  3016,'4 ',1,   3,   4,     3.524,     1.561,     0.000,     0.000,     0.000,     0.000,   1,1,0
  3016,'5 ',1,   3,   4,     2.419,     1.884,     0.000,     0.000,     0.000,     0.000,   1,1,0
  3016,'6 ',1,   3,   4,     9.299,     3.298,     0.000,     0.000,     0.000,     0.000,   1,1,0
  3016,'7 ',1,   3,   4,     5.555,     2.230,     0.000,     0.000,     0.000,     0.000,   1,1,0
  3017,'1 ',1,   3,   1,     8.619,     2.619,     0.000,     0.000,     0.000,     0.000,   1,1,0
  3017,'2 ',1,   3,   1,     5.391,     1.707,     0.000,     0.000,     0.000,     0.000,   1,1,0
  3018,'1 ',0,   3,   1,     0.000,     0.000,     0.000,     0.000,     0.000,     0.000,   1,1,0
  3018,'2 ',1,   3,   1,    11.444,     3.566,     0.000,     0.000,     0.000,     0.000,   1,1,0
  3022,'1 ',1,   3,   1,    11.886,     4.382,     0.000,     0.000,     0.000,     0.000,   1,1,0
  3022,'2 ',1,   3,   1,     2.389,     0.829,     0.000,     0.000,     0.000,     0.000,   1,1,0
  3022,'3 ',1,   3,   1,    11.541,     3.148,     0.000,     0.000,     0.000,     0.000,   1,1,0
  3022,'4 ',1,   3,   1,     5.396,     1.992,     0.000,     0.000,     0.000,     0.000,   1,1,0
  3024,'1 ',1,   3,   1,    13.535,     3.153,     0.000,     0.000,     0.000,     0.000,   1,1,0
  3024,'2 ',1,   3,   1,    13.989,     3.009,     0.000,     0.000,     0.000,     0.000,   1,1,0
  3024,'3 ',1,   3,   1,    17.887,     4.674,     0.000,     0.000,     0.000,     0.000,   1,1,0
  3025,'1 ',1,   3,   3,    -0.240,    -0.130,     0.000,     0.000,     0.000,     0.000,   2,0,0
  3026,'1 ',1,   3,   4,    11.000,     3.431,     0.000,     0.000,     0.000,     0.000,   1,1,0
  3026,'2 ',1,   3,   4,    12.712,     4.218,     0.000,     0.000,     0.000,     0.000,   1,1,0
  3026,'3 ',1,   3,   4,    10.756,     1.952,     0.000,     0.000,     0.000,     0.000,   1,1,0
  3026,'4 ',0,   3,   4,     0.000,     0.000,     0.000,     0.000,     0.000,     0.000,   1,1,0
  3026,'5 ',0,   3,   4,     0.000,     0.000,     0.000,     0.000,     0.000,     0.000,   1,1,0
  3027,'1 ',1,   3,   2,     7.304,     1.692,     0.000,     0.000,     0.000,     0.000,   1,1,0
  3027,'2 ',1,   3,   2,    10.147,     2.756,     0.000,     0.000,     0.000,     0.000,   1,1,0
  3027,'3 ',1,   3,   2,    12.140,     4.482,     0.000,     0.000,     0.000,     0.000,   1,1,0
  3027,'4 ',1,   3,   2,    14.493,     3.833,     0.000,     0.000,     0.000,     0.000,   1,1,0
  3028,'1 ',1,   3,   1,     9.270,     2.626,     0.000,     0.000,     0.000,     0.000,   1,1,0
  3035,'1 ',1,   3,   1,     9.896,     2.461,     0.000,     0.000,     0.000,     0.000,   1,1,0
  3035,'2 ',1,   3,   1,     6.087,     1.304,     0.000,     0.000,     0.000,     0.000,   1,1,0
  3035,'3 ',1,   3,   1,     9.022,     2.067,     0.000,     0.000,     0.000,     0.000,   1,1,0
  3035,'4 ',1,   3,   1,    14.240,     3.043,     0.000,     0.000,     0.000,     0.000,   1,1,0
  3035,'5 ',0,   3,   1,     6.991,     1.171,     0.000,     0.000,     0.000,     0.000,   1,1,0
  3036,'1 ',1,   3,   1,     0.510,    -0.510,     0.000,     0.000,     0.000,     0.000,   1,0,0
  3039,'1 ',1,   3,   1,    22.000,    10.000,     0.000,     0.000,     0.000,     0.000,   2,0,0
  3042,'1 ',1,   3,   2,     5.166,     1.168,     0.000,     0.000,     0.000,     0.000,   1,1,0
  3042,'2 ',1,   3,   2,    12.100,     1.428,     0.000,     0.000,     0.000,     0.000,   1,1,0
  3042,'3 ',1,   3,   2,    15.771,     1.639,     0.000,     0.000,     0.000,     0.000,   1,1,0
  3044,'1 ',1,   3,   1,     8.071,     0.015,     0.000,     0.000,     0.000,     0.000,   1,1,0
  3044,'2 ',1,   3,   1,     8.071,     0.015,     0.000,     0.000,     0.000,     0.000,   1,1,0
  3046,'1 ',1,   3,   2,     7.246,     1.878,     0.000,     0.000,     0.000,     0.000,   1,1,0
  3048,'1 ',1,   3,   1,    12.609,     3.913,     0.000,     0.000,     0.000,     0.000,   1,1,0
  3048,'2 ',1,   3,   1,    15.109,     4.131,     0.000,     0.000,     0.000,     0.000,   1,1,0
  3048,'3 ',1,   3,   1,     0.669,     0.013,     0.000,     0.000,     0.000,     0.000,   1,1,0
  3048,'4 ',0,   3,   1,    11.705,     4.838,     0.000,     0.000,     0.000,     0.000,   1,1,0
  3048,'5 ',0,   3,   1,     8.612,     2.588,     0.000,     0.000,     0.000,     0.000,   1,1,0
  3050,'1 ',1,   3,   1,    15.032,     3.545,     0.000,     0.000,     0.000,     0.000,   1,1,0
  3050,'2 ',1,   3,   1,     6.828,     1.979,     0.000,     0.000,     0.000,     0.000,   1,1,0
  3051,'1 ',1,   3,   1,    14.098,     4.087,     0.000,     0.000,     0.000,     0.000,   1,1,0
  3051,'2 ',1,   3,   1,    10.002,     3.347,     0.000,     0.000,     0.000,     0.000,   1,1,0
  3051,'3 ',1,   3,   1,    15.968,     5.434,     0.000,     0.000,     0.000,     0.000,   1,1,0
  3053,'1 ',1,   3,   3,     7.263,     3.553,     0.000,     0.000,     0.000,     0.000,   1,1,0
  3053,'2 ',1,   3,   3,     5.243,     1.596,     0.000,     0.000,     0.000,     0.000,   1,1,0
  3053,'3 ',1,   3,   3,     7.378,     1.832,     0.000,     0.000,     0.000,     0.000,   1,0,0
  3053,'4 ',1,   3,   3,     5.995,     1.306,     0.000,     0.000,     0.000,     0.000,   1,1,0
  3053,'5 ',0,   3,   3,     2.941,     0.201,     0.000,     0.000,     0.000,     0.000,   1,1,0
  3056,'1 ',1,   3,   4,     9.288,     0.576,     0.000,     0.000,     0.000,     0.000,   1,1,0
  3056,'2 ',1,   3,   4,    10.859,     1.906,     0.000,     0.000,     0.000,     0.000,   1,1,0
  3056,'3 ',1,   3,   4,    15.349,     3.038,     0.000,     0.000,     0.000,     0.000,   1,1,0
  3056,'4 ',0,   3,   4,     4.911,     0.360,     0.000,     0.000,     0.000,     0.000,   1,1,0
  3057,'1 ',1,   3,   4,     9.403,     1.858,     0.000,     0.000,     0.000,     0.000,   1,1,0
  3057,'2 ',0,   3,   4,     3.179,     0.091,     0.000,     0.000,     0.000,     0.000,   1,1,0
  3061,'1 ',1,   3,   4,     6.977,     1.041,     0.000,     0.000,     0.000,     0.000,   1,1,0
  3061,'2 ',1,   3,   4,    13.627,     3.753,     0.000,     0.000,     0.000,     0.000,   1,1,0
  3063,'1 ',1,   3,   2,     2.273,     0.616,     0.000,     0.000,     0.000,     0.000,   1,1,0
  3063,'2 ',1,   3,   2,    11.556,     2.930,     0.000,     0.000,     0.000,     0.000,   1,1,0
  3066,'1 ',1,   3,   2,     8.509,     2.086,     0.000,     0.000,     0.000,     0.000,   1,1,0
  3068,'1 ',1,   3,   4,    15.463,     3.038,     0.000,     0.000,     0.000,     0.000,   1,1,0
  3068,'2 ',1,   3,   4,    20.537,     2.013,     0.000,     0.000,     0.000,     0.000,   1,1,0
  3068,'3 ',1,   3,   4,     4.643,     0.873,     0.000,     0.000,     0.000,     0.000,   1,1,0
  3068,'4 ',1,   3,   4,     2.213,     0.526,     0.000,     0.000,     0.000,     0.000,   1,1,0
  3070,'1 ',1,   3,   1,     7.695,    -0.391,     0.000,     0.000,     0.000,     0.000,   1,1,0
  3073,'1 ',1,   3,   1,     3.117,     0.422,     0.000,     0.000,     0.000,     0.000,   1,1,0
  3074,'1 ',1,   3,   4,     4.099,     2.683,     0.000,     0.000,     0.000,     0.000,   1,1,0
  3074,'2 ',1,   3,   4,    10.088,     2.982,     0.000,     0.000,     0.000,     0.000,   1,1,0
  3074,'3 ',1,   3,   4,     4.025,     0.800,     0.000,     0.000,     0.000,     0.000,   1,1,0
  3074,'4 ',1,   3,   4,     5.164,     1.027,     0.000,     0.000,     0.000,     0.000,   1,1,0
  3076,'1 ',1,   3,   4,     6.954,     1.561,     0.000,     0.000,     0.000,     0.000,   1,1,0
  3076,'2 ',1,   3,   4,     8.275,     0.645,     0.000,     0.000,     0.000,     0.000,   1,1,0
  3076,'3 ',1,   3,   4,     6.349,     0.457,     0.000,     0.000,     0.000,     0.000,   1,1,0
  3076,'4 ',0,   3,   4,     5.155,     0.478,     0.000,     0.000,     0.000,     0.000,   1,1,0
  3081,'1 ',1,   3,   1,    15.155,     2.800,     0.000,     0.000,     0.000,     0.000,   1,1,0
  3081,'2 ',1,   3,   1,     3.071,     1.098,     0.000,     0.000,     0.000,     0.000,   1,1,0
  3084,'1 ',1,   3,   3,    12.000,     2.300,     0.000,     0.000,     0.000,     0.000,   1,0,0
  3086,'1 ',1,   3,   1,     3.083,     0.671,     0.000,     0.000,     0.000,     0.000,   1,1,0
  3086,'2 ',1,   3,   1,     5.092,     1.118,     0.000,     0.000,     0.000,     0.000,   1,1,0
  3088,'1 ',1,   3,   3,     1.403,     0.130,     0.000,     0.000,     0.000,     0.000,   1,1,0
  3088,'2 ',1,   3,   3,    10.016,     2.476,     0.000,     0.000,     0.000,     0.000,   1,1,0
  3090,'1 ',1,   3,   5,     3.511,     0.512,     0.000,     0.000,     0.000,     0.000,   1,1,0
  3090,'2 ',1,   3,   5,    14.918,     4.080,     0.000,     0.000,     0.000,     0.000,   1,1,0
  3090,'3 ',1,   3,   5,    17.380,     5.748,     0.000,     0.000,     0.000,     0.000,   1,1,0
  3090,'4 ',1,   3,   5,    13.102,     4.522,     0.000,     0.000,     0.000,     0.000,   1,1,0
  3092,'1 ',1,   3,   4,     3.780,     0.490,     0.000,     0.000,     0.000,     0.000,   2,0,0
  3096,'1 ',1,   3,   1,    12.718,     4.458,     0.000,     0.000,     0.000,     0.000,   1,1,0
  3096,'2 ',1,   3,   1,     9.566,     2.067,     0.000,     0.000,     0.000,     0.000,   1,1,0
  3096,'3 ',1,   3,   1,     6.520,     1.522,     0.000,     0.000,     0.000,     0.000,   1,1,0
  3096,'4 ',1,   3,   1,     9.261,     2.772,     0.000,     0.000,     0.000,     0.000,   1,1,0
  3096,'5 ',0,   3,   1,     6.548,     1.026,     0.000,     0.000,     0.000,     0.000,   1,1,0
  3096,'6 ',0,   3,   1,     7.689,     2.256,     0.000,     0.000,     0.000,     0.000,   1,1,0
  3099,'1 ',1,   3,   4,     5.493,     0.740,     0.000,     0.000,     0.000,     0.000,   1,1,0
  3099,'2 ',1,   3,   4,     7.425,     2.609,     0.000,     0.000,     0.000,     0.000,   1,1,0
  3102,'1 ',1,   3,   4,    14.497,     2.520,     0.000,     0.000,     0.000,     0.000,   1,1,0
  3104,'1 ',1,   3,   2,    10.334,     2.462,     0.000,     0.000,     0.000,     0.000,   1,1,0
  3104,'2 ',1,   3,   2,     9.989,     0.006,     0.000,     0.000,     0.000,     0.000,   1,1,0
  3104,'3 ',1,   3,   2,    11.394,     2.577,     0.000,     0.000,     0.000,     0.000,   1,1,0
  3104,'4 ',1,   3,   2,    13.463,     2.569,     0.000,     0.000,     0.000,     0.000,   1,1,0
  3106,'1 ',1,   3,   5,    17.381,     3.417,     0.000,     0.000,     0.000,     0.000,   1,1,0
  3106,'2 ',1,   3,   5,    20.003,     5.105,     0.000,     0.000,     0.000,     0.000,   1,1,0
  3106,'3 ',1,   3,   5,     2.894,     0.705,     0.000,     0.000,     0.000,     0.000,   1,1,0
  3106,'4 ',1,   3,   5,    12.668,     3.035,     0.000,     0.000,     0.000,     0.000,   1,1,0
  3106,'5 ',0,   3,   5,   -11.478,    -1.281,     0.000,     0.000,     0.000,     0.000,   1,0,0
  3109,'2 ',0,   3,   3,     7.803,     1.970,     0.000,     0.000,     0.000,     0.000,   1,1,0
  3112,'1 ',1,   3,   4,    16.382,     4.951,     0.000,     0.000,     0.000,     0.000,   1,1,0
  3112,'2 ',1,   3,   4,     9.960,     3.152,     0.000,     0.000,     0.000,     0.000,   1,1,0
  3112,'3 ',1,   3,   4,     7.054,     2.125,     0.000,     0.000,     0.000,     0.000,   1,1,0
  3112,'4 ',1,   3,   4,     8.481,     1.640,     0.000,     0.000,     0.000,     0.000,   1,1,0
  3117,'1 ',1,   3,   2,     9.646,     1.557,     0.000,     0.000,     0.000,     0.000,   1,1,0
  3117,'2 ',1,   3,   2,    14.936,     2.618,     0.000,     0.000,     0.000,     0.000,   1,1,0
  3119,'1 ',1,   3,   4,     9.746,     2.982,     0.000,     0.000,     0.000,     0.000,   1,1,0
  3119,'2 ',1,   3,   4,    15.867,     3.967,     0.000,     0.000,     0.000,     0.000,   1,1,0
  3119,'3 ',1,   3,   4,    10.871,     2.279,     0.000,     0.000,     0.000,     0.000,   1,1,0
  3119,'4 ',1,   3,   4,     6.858,     1.255,     0.000,     0.000,     0.000,     0.000,   1,1,0
  3121,'1 ',1,   3,   1,     3.674,     1.021,     0.000,     0.000,     0.000,     0.000,   1,1,0
  3121,'2 ',1,   3,   1,     8.587,     2.098,     0.000,     0.000,     0.000,     0.000,   1,1,0
  3121,'3 ',1,   3,   1,     5.076,     0.401,     0.000,     0.000,     0.000,     0.000,   1,1,0
  3121,'4 ',0,   3,   1,     3.610,    -0.100,     0.000,     0.000,     0.000,     0.000,   1,1,0
  3124,'1 ',1,   3,   1,    19.457,     6.848,     0.000,     0.000,     0.000,     0.000,   1,1,0
  3124,'2 ',1,   3,   1,    14.348,     5.000,     0.000,     0.000,     0.000,     0.000,   1,1,0
  3124,'3 ',0,   3,   1,    14.300,     4.600,     0.000,     0.000,     0.000,     0.000,   1,1,0
  3124,'4 ',1,   3,   1,     6.087,     2.282,     0.000,     0.000,     0.000,     0.000,   1,1,0
  3126,'1 ',1,   3,   1,     1.261,     0.055,     0.000,     0.000,     0.000,     0.000,   1,1,0
  3126,'2 ',1,   3,   1,     3.293,     0.684,     0.000,     0.000,     0.000,     0.000,   1,1,0
  3126,'3 ',1,   3,   1,     3.804,     0.684,     0.000,     0.000,     0.000,     0.000,   1,1,0
  3127,'1 ',1,   3,   4,     4.595,     0.499,     0.000,     0.000,     0.000,     0.000,   1,1,0
  3127,'2 ',1,   3,   4,     2.982,     0.000,     0.000,     0.000,     0.000,     0.000,   1,1,0
  3127,'3 ',1,   3,   4,     5.508,     1.457,     0.000,     0.000,     0.000,     0.000,   1,1,0
  3130,'1 ',1,   3,   4,    11.374,     3.340,     0.000,     0.000,     0.000,     0.000,   1,1,0
  3130,'2 ',1,   3,   4,    11.100,     2.825,     0.000,     0.000,     0.000,     0.000,   1,1,0
  3130,'3 ',1,   3,   4,    13.598,     4.067,     0.000,     0.000,     0.000,     0.000,   1,1,0
  3133,'1 ',1,   3,   4,     6.705,     1.898,     0.000,     0.000,     0.000,     0.000,   1,1,0
  3134,'1 ',1,   3,   1,     8.436,     2.054,     0.000,     0.000,     0.000,     0.000,   1,1,0
  3134,'2 ',0,   3,   1,     2.390,     0.780,     0.000,     0.000,     0.000,     0.000,   1,1,0
  3134,'3 ',1,   3,   1,    11.162,     3.761,     0.000,     0.000,     0.000,     0.000,   1,1,0
  3134,'4 ',1,   3,   1,     9.666,     3.182,     0.000,     0.000,     0.000,     0.000,   1,1,0
  3136,'1 ',1,   3,   1,    10.091,    -0.173,     0.000,     0.000,     0.000,     0.000,   1,1,0
  3137,'1 ',1,   3,   1,    12.371,     3.763,     0.000,     0.000,     0.000,     0.000,   1,1,0
  3137,'2 ',1,   3,   1,    11.359,     2.673,     0.000,     0.000,     0.000,     0.000,   1,1,0
  3137,'3 ',1,   3,   1,    14.725,     3.613,     0.000,     0.000,     0.000,     0.000,   1,1,0
  3139,'1 ',1,   3,   1,     1.887,     0.133,     0.000,     0.000,     0.000,     0.000,   2,1,0
  3140,'1 ',1,   3,   1,    10.054,     2.716,     0.000,     0.000,     0.000,     0.000,   1,1,0
  3140,'2 ',1,   3,   1,    10.054,     3.262,     0.000,     0.000,     0.000,     0.000,   1,1,0
  3141,'1 ',1,   3,   4,     6.975,     1.039,     0.000,     0.000,     0.000,     0.000,   1,1,0
  3141,'2 ',1,   3,   4,     3.692,     0.567,     0.000,     0.000,     0.000,     0.000,   1,1,0
  3147,'1 ',0,   3,   3,    10.022,     1.958,     0.000,     0.000,     0.000,     0.000,   1,1,0
  3149,'1 ',1,   3,   3,    -0.311,    -0.002,     0.000,     0.000,     0.000,     0.000,   2,0,0
  3150,'1 ',1,   3,   4,     5.820,     1.685,     0.000,     0.000,     0.000,     0.000,   1,1,0
  3150,'2 ',1,   3,   4,     8.543,     1.640,     0.000,     0.000,     0.000,     0.000,   1,1,0
  3150,'3 ',0,   3,   4,     2.446,     0.572,     0.000,     0.000,     0.000,     0.000,   1,1,0
  3151,'1 ',1,   3,   4,    13.006,     2.578,     0.000,     0.000,     0.000,     0.000,   1,1,0
  3152,'1 ',1,   3,   3,    11.484,     4.444,     0.000,     0.000,     0.000,     0.000,   1,1,0
  3152,'2 ',1,   3,   3,     2.253,     2.310,     0.000,     0.000,     0.000,     0.000,   1,1,0
  3152,'RF',1,   3,   3,    -3.870,    -2.390,     0.000,     0.000,     0.000,     0.000,   1,0,0
  3157,'1 ',1,   3,   2,     6.500,     1.783,     0.000,     0.000,     0.000,     0.000,   1,1,0
  3157,'2 ',1,   3,   2,     3.132,     0.729,     0.000,     0.000,     0.000,     0.000,   1,1,0
  3159,'1 ',1,   3,   1,    15.216,     3.479,     0.000,     0.000,     0.000,     0.000,   1,1,0
  3159,'2 ',1,   3,   1,    15.613,     3.364,     0.000,     0.000,     0.000,     0.000,   1,1,0
  3161,'1 ',1,   3,   1,    10.054,     3.804,     0.000,     0.000,     0.000,     0.000,   1,1,0
  3161,'2 ',1,   3,   1,    10.054,     3.262,     0.000,     0.000,     0.000,     0.000,   1,1,0
  3164,'1 ',1,   3,   2,     9.780,     2.307,     0.000,     0.000,     0.000,     0.000,   1,1,0
  3164,'2 ',1,   3,   2,     9.776,     3.122,     0.000,     0.000,     0.000,     0.000,   1,1,0
  3164,'3 ',1,   3,   2,     2.805,     1.233,     0.000,     0.000,     0.000,     0.000,   1,1,0
  3166,'1 ',1,   3,   3,     2.500,     0.700,     0.000,     0.000,     0.000,     0.000,   2,0,0
  3181,'1 ',1,   3,   1,    14.130,     6.109,     0.000,     0.000,     0.000,     0.000,   1,1,0
  3181,'2 ',1,   3,   1,     4.858,     1.228,     0.000,     0.000,     0.000,     0.000,   1,1,0
  3181,'3 ',0,   3,   1,     3.140,     0.664,     0.000,     0.000,     0.000,     0.000,   1,1,0
  3181,'4 ',0,   3,   1,     4.360,     0.543,     0.000,     0.000,     0.000,     0.000,   1,1,0
  3184,'1 ',1,   3,   3,     9.867,     2.556,     0.000,     0.000,     0.000,     0.000,   1,1,0
  3184,'2 ',1,   3,   3,    12.392,     3.328,     0.000,     0.000,     0.000,     0.000,   1,1,0
  3184,'3 ',1,   3,   3,     4.984,     1.399,     0.000,     0.000,     0.000,     0.000,   1,1,0
  3184,'4 ',1,   3,   3,    10.858,     3.692,     0.000,     0.000,     0.000,     0.000,   1,1,0
  3186,'1 ',1,   3,   1,    19.597,     5.748,     0.000,     0.000,     0.000,     0.000,   1,1,0
  3186,'2 ',1,   3,   1,    18.912,     6.087,     0.000,     0.000,     0.000,     0.000,   1,1,0
  3186,'3 ',0,   3,   1,    14.466,    14.466,     0.000,     0.000,     0.000,     0.000,   1,0,0
  3187,'1 ',1,   3,   4,     8.425,     2.995,     0.000,     0.000,     0.000,     0.000,   1,1,0
  3187,'2 ',1,   3,   4,    15.982,     2.339,     0.000,     0.000,     0.000,     0.000,   1,1,0
  3194,'1 ',1,   3,   1,     4.262,     1.386,     0.000,     0.000,     0.000,     0.000,   1,1,0
  3194,'2 ',1,   3,   1,     5.759,     1.320,     0.000,     0.000,     0.000,     0.000,   1,1,0
  3213,'1 ',1,   3,   1,    17.878,    13.146,     0.000,     0.000,     0.000,     0.000,   1,0,0
  3228,'1 ',1,   3,   1,    13.000,    -0.710,     0.000,     0.000,     0.000,     0.000,   2,0,0
  3228,'2 ',1,   3,   1,     8.000,     2.330,     0.000,     0.000,     0.000,     0.000,   2,0,0
  3228,'3 ',1,   3,   1,     9.000,     2.600,     0.000,     0.000,     0.000,     0.000,   2,0,0
  3244,'1 ',1,   3,   3,     2.720,     0.598,     0.000,     0.000,     0.000,     0.000,   2,1,0
  3284,'1 ',1,   3,   1,     5.819,     1.234,     0.000,     0.000,     0.000,     0.000,   1,1,0
  3284,'2 ',1,   3,   1,     7.818,     1.769,     0.000,     0.000,     0.000,     0.000,   1,1,0
  3290,'1 ',1,   3,   1,     5.761,     1.905,     0.000,     0.000,     0.000,     0.000,   1,1,0
  3290,'2 ',1,   3,   1,     9.327,     2.022,     0.000,     0.000,     0.000,     0.000,   1,1,0
  3311,'1 ',1,   3,   5,     7.556,     1.450,     0.000,     0.000,     0.000,     0.000,   1,1,0
  3316,'1 ',1,   3,   4,     9.859,     2.217,     0.000,     0.000,     0.000,     0.000,   1,1,0
  3316,'2 ',0,   3,   4,     6.041,     1.163,     0.000,     0.000,     0.000,     0.000,   1,1,0
...
0 / END OF LOAD DATA, BEGIN FIXED SHUNT DATA
0 / END OF FIXED SHUNT DATA, BEGIN GENERATOR DATA
  3001,'1 ',    53.935,    30.949,    54.750,   -54.750,1.03000,     0,    91.250, 0.00000E+0, 1.80000E-1, 0.00000E+0, 0.00000E+0,1.00000,1,  100.0,    75.000,     0.000,   1,1.0000
  3002,'1 ',    55.000,    31.017,    54.750,   -54.750,1.03000,     0,    91.250, 0.00000E+0, 1.80000E-1, 0.00000E+0, 0.00000E+0,1.00000,1,  100.0,    75.000,     0.000,   1,1.0000
  3003,'1 ',    55.000,    31.017,    54.750,   -54.750,1.03000,     0,    91.250, 0.00000E+0, 1.80000E-1, 0.00000E+0, 0.00000E+0,1.00000,1,  100.0,    75.000,     0.000,   1,1.0000
  3004,'1 ',    55.000,    22.250,    54.750,   -54.750,1.02000,     0,    91.250, 0.00000E+0, 1.80000E-1, 0.00000E+0, 0.00000E+0,1.00000,1,  100.0,    75.000,     0.000,   1,1.0000
  3005,'1 ',    12.000,     1.517,     5.000,    -4.000,1.00000,     0,    17.000, 0.00000E+0, 1.50000E-1, 0.00000E+0, 0.00000E+0,1.00000,1,  100.0,    14.500,     0.000,   1,1.0000
  3006,'1 ',    12.000,     1.513,     5.000,    -4.000,1.00000,     0,    17.000, 0.00000E+0, 1.20000E-1, 0.00000E+0, 0.00000E+0,1.00000,1,  100.0,    14.500,     0.000,   1,1.0000
  3007,'1 ',    20.000,    10.000,    10.000,   -10.000,1.02000,     0,    21.053, 0.00000E+0, 1.50000E-1, 0.00000E+0, 0.00000E+0,1.00000,1,  100.0,    20.000,     0.000,   1,1.0000
  3008,'1 ',    20.000,    10.000,    10.000,   -10.000,1.02000,     0,    21.053, 0.00000E+0, 2.40000E-1, 0.00000E+0, 0.00000E+0,1.00000,1,  100.0,    20.000,     0.000,   1,1.0000
  3009,'1 ',    20.000,    10.000,    10.000,   -10.000,1.02000,     0,    21.053, 0.00000E+0, 2.10000E-1, 0.00000E+0, 0.00000E+0,1.00000,1,  100.0,    20.000,     0.000,   1,1.0000
  3010,'1 ',    10.000,    10.000,    10.000,   -10.000,1.02000,     0,    21.053, 0.00000E+0, 2.30000E-1, 0.00000E+0, 0.00000E+0,1.00000,1,  100.0,    20.000,     0.000,   1,1.0000
  3011,'1 ',     5.000,     0.399,     5.000,    -5.000,1.02000,     0,    25.000, 0.00000E+0, 1.44000E-1, 0.00000E+0, 0.00000E+0,1.00000,1,  100.0,    22.500,     0.000,   1,1.0000
  3012,'1 ',     0.000,     2.489,     7.500,     0.000,1.02000,     0,    14.450, 0.00000E+0, 2.31000E-1, 0.00000E+0, 0.00000E+0,1.00000,0,  100.0,    10.000,     0.000,   2,1.0000
  3012,'2 ',     0.000,     2.489,     7.500,     0.000,1.02000,     0,    14.450, 0.00000E+0, 2.31000E-1, 0.00000E+0, 0.00000E+0,1.00000,0,  100.0,    10.000,     0.000,   2,1.0000
  3012,'3 ',     0.000,     2.489,     7.500,     0.000,1.02000,     0,    14.450, 0.00000E+0, 2.31000E-1, 0.00000E+0, 0.00000E+0,1.00000,0,  100.0,    10.000,     0.000,   2,1.0000
  3013,'1 ',     0.000,     7.500,     7.500,     0.000,1.02000,     0,    14.450, 0.00000E+0, 2.31000E-1, 0.00000E+0, 0.00000E+0,1.00000,0,  100.0,    10.000,     0.000,   2,1.0000
  3013,'2 ',     0.000,     5.232,     7.500,     0.000,1.02000,     0,    14.450, 0.00000E+0, 2.31000E-1, 0.00000E+0, 0.00000E+0,1.00000,0,  100.0,    10.000,     0.000,   2,1.0000
  3013,'3 ',     0.000,     3.405,     7.500,     0.000,1.02000,     0,    14.450, 0.00000E+0, 2.31000E-1, 0.00000E+0, 0.00000E+0,1.00000,0,  100.0,    10.000,     0.000,   2,1.0000
  3014,'1 ',     0.000,     3.658,     7.500,     0.000,1.02000,     0,    14.450, 0.00000E+0, 2.31000E-1, 0.00000E+0, 0.00000E+0,1.00000,0,  100.0,    10.000,     0.000,   2,1.0000
  3014,'2 ',     0.000,     3.658,     7.500,     0.000,1.02000,     0,    14.450, 0.00000E+0, 2.31000E-1, 0.00000E+0, 0.00000E+0,1.00000,0,  100.0,    10.000,     0.000,   2,1.0000
  3015,'1 ',     0.000,     0.000,    30.000,     0.000,1.00000,     0,    57.412, 0.00000E+0, 1.24000E-1, 0.00000E+0, 0.00000E+0,1.00000,0,  100.0,    40.000,     0.000,   2,1.0000
  3017,'1 ',     0.000,     5.088,    11.250,    -3.750,1.00000,     0,    18.750, 0.00000E+0, 2.00000E-1, 0.00000E+0, 0.00000E+0,1.00000,0,  100.0,    18.000,     0.000,   1,1.0000
  3018,'1 ',     0.000,     3.750,     3.750,    -3.750,1.00000,     0,    12.500, 0.00000E+0, 2.00000E-1, 0.00000E+0, 0.00000E+0,1.00000,0,  100.0,    15.000,     0.000,   1,1.0000
  3019,'1 ',     0.000,    -1.928,     9.000,    -3.750,1.00000,     0,    15.000, 0.00000E+0, 2.09000E-1, 0.00000E+0, 0.00000E+0,1.00000,0,  100.0,    11.000,     0.000,   2,1.0000
  3019,'2 ',     0.000,    -1.928,     9.000,    -3.750,1.00000,     0,    15.000, 0.00000E+0, 2.09000E-1, 0.00000E+0, 0.00000E+0,1.00000,0,  100.0,    11.000,     0.000,   2,1.0000
  3019,'3 ',     0.000,    -1.928,     9.000,    -3.750,1.00000,     0,    15.000, 0.00000E+0, 2.09000E-1, 0.00000E+0, 0.00000E+0,1.00000,0,  100.0,    11.000,     0.000,   2,1.0000
  3019,'4 ',     0.000,    -3.386,     9.000,    -3.750,1.00000,     0,    15.000, 0.00000E+0, 2.09000E-1, 0.00000E+0, 0.00000E+0,1.00000,0,  100.0,    11.000,     0.000,   2,1.0000
  3019,'5 ',     0.000,    -3.386,     9.000,    -3.750,1.00000,     0,    15.000, 0.00000E+0, 2.09000E-1, 0.00000E+0, 0.00000E+0,1.00000,0,  100.0,    11.000,     0.000,   2,1.0000
  3020,'1 ',     0.000,     5.241,     5.625,    -1.875,1.00000,     0,    10.000, 0.00000E+0, 3.82000E-1, 0.00000E+0, 0.00000E+0,1.00000,0,  100.0,     7.500,     0.000,   1,1.0000
  3020,'2 ',     0.000,     5.374,     5.625,    -1.875,1.00000,     0,    10.000, 0.00000E+0, 3.82000E-1, 0.00000E+0, 0.00000E+0,1.00000,0,  100.0,     7.500,     0.000,   1,1.0000
  3020,'3 ',     0.000,     1.791,     5.625,    -1.875,1.00000,     0,    10.000, 0.00000E+0, 3.82000E-1, 0.00000E+0, 0.00000E+0,1.00000,0,  100.0,     7.500,     0.000,   1,1.0000
  3020,'4 ',     0.000,     4.024,     5.625,    -1.875,1.00000,     0,    10.000, 0.00000E+0, 3.82000E-1, 0.00000E+0, 0.00000E+0,1.00000,0,  100.0,     7.500,     0.000,   1,1.0000
  3021,'1 ',     0.000,     0.643,     5.625,    -1.875,1.02000,     0,     9.375, 0.00000E+0, 2.90000E-1, 0.00000E+0, 0.00000E+0,1.00000,0,  100.0,     7.500,     0.000,   1,1.0000
  3021,'2 ',     0.000,     0.643,     5.625,    -1.875,1.02000,     0,     9.375, 0.00000E+0, 2.90000E-1, 0.00000E+0, 0.00000E+0,1.00000,0,  100.0,     7.500,     0.000,   1,1.0000
  3021,'3 ',     0.000,     0.643,     5.625,    -1.875,1.02000,     0,     9.375, 0.00000E+0, 2.90000E-1, 0.00000E+0, 0.00000E+0,1.00000,0,  100.0,     7.500,     0.000,   1,1.0000
  3021,'4 ',     0.000,     0.643,     5.625,    -1.875,1.02000,     0,     9.375, 0.00000E+0, 2.90000E-1, 0.00000E+0, 0.00000E+0,1.00000,0,  100.0,     7.500,     0.000,   1,1.0000
  3023,'1 ',     0.000,     2.300,     2.300,    -2.300,1.00000,     0,     8.312, 0.00000E+0, 2.27000E-1, 0.00000E+0, 0.00000E+0,1.00000,0,  100.0,     6.000,     0.000,   1,1.0000
  3023,'2 ',     0.000,     0.818,     1.500,    -1.500,1.00000,     0,     8.312, 0.00000E+0, 2.27000E-1, 0.00000E+0, 0.00000E+0,1.00000,0,  100.0,     6.000,     0.000,   1,1.0000
  3023,'3 ',     0.000,     1.120,     1.500,    -1.500,1.00000,     0,     8.312, 0.00000E+0, 2.27000E-1, 0.00000E+0, 0.00000E+0,1.00000,0,  100.0,     6.000,     0.000,   1,1.0000
  3023,'4 ',     0.000,     1.500,     1.500,    -1.500,1.00000,     0,     8.312, 0.00000E+0, 2.27000E-1, 0.00000E+0, 0.00000E+0,1.00000,0,  100.0,     6.000,     0.000,   1,1.0000
  3042,'1 ',     1.800,     1.000,     1.000,    -1.100,1.02000,     0,     2.100, 0.00000E+0, 2.90000E-1, 0.00000E+0, 0.00000E+0,1.00000,1,  100.0,     2.000,     0.000,   1,1.0000
  3065,'1 ',     0.201,    -0.019,     0.000,     0.000,1.00000,     0,     0.625, 0.00000E+0, 2.90000E-1, 0.00000E+0, 0.00000E+0,1.00000,1,  100.0,     0.500,     0.000,   2,1.0000
  3068,'1 ',     7.000,     1.847,    14.520,   -14.520,1.02000,     0,    33.300, 0.00000E+0, 2.27000E-1, 0.00000E+0, 0.00000E+0,1.00000,1,  100.0,    30.000,     0.000,   1,1.0000
  3090,'FY',     2.307,     0.395,     0.758,    -0.758,1.00000,     0,     4.170, 9.99000E+2, 9.99000E+2, 0.00000E+0, 0.00000E+0,1.00000,1,  100.0,     4.000,     0.000,   1,1.0000,    ,      ,    ,      ,    ,      ,2, 0.9500
  3090,'LS',     8.552,     1.464,     2.811,    -2.811,1.00000,     0,    16.000, 9.99000E+2, 9.99000E+2, 0.00000E+0, 0.00000E+0,1.00000,1,  100.0,    14.810,     0.000,   1,1.0000,    ,      ,    ,      ,    ,      ,2, 0.9500
  3093,'1 ',     0.000,     1.200,     1.200,    -1.200,1.02000,     0,     2.400, 0.00000E+0, 1.50000E-1, 0.00000E+0, 0.00000E+0,1.00000,0,  100.0,     2.000,     0.000,   2,1.0000
  3104,'1 ',    15.000,    -0.798,    12.390,   -12.390,1.01000,     0,    23.530, 0.00000E+0, 1.00000E+0, 0.00000E+0, 0.00000E+0,1.00000,1,  100.0,    20.000,     0.000,   1,1.0000
  3106,'LJ',     7.011,     2.304,     2.304,    -2.304,1.02000,     0,    11.000, 0.00000E+0, 1.00000E+0, 0.00000E+0, 0.00000E+0,1.00000,1,  100.0,    10.000,     0.000,   1,1.0000,    ,      ,    ,      ,    ,      ,2, 0.9500
  3106,'MR',    22.836,     7.506,     7.506,    -7.506,1.02000,     0,    37.000, 9.99000E+2, 9.99000E+2, 0.00000E+0, 0.00000E+0,1.00000,1,  100.0,    35.000,     0.000,   1,1.0000,    ,      ,    ,      ,    ,      ,2, 0.9500
  3114,'1 ',     3.000,     1.272,     3.225,    -3.225,1.03000,     0,     5.375, 0.00000E+0, 2.70000E-1, 0.00000E+0, 0.00000E+0,1.00000,1,  100.0,     5.000,     0.000,   1,1.0000
  3115,'1 ',     1.000,     0.129,     0.400,    -0.400,1.00000,     0,     1.500, 0.00000E+0, 2.70000E-1, 0.00000E+0, 0.00000E+0,1.00000,1,  100.0,     1.200,     0.000,   1,1.0000
  3124,'1 ',     6.000,    -6.190,     6.190,    -6.190,1.00000,     0,    11.760, 0.00000E+0, 1.00000E+0, 0.00000E+0, 0.00000E+0,1.00000,1,  100.0,    10.000, -9999.000,   1,1.0000
  3125,'1 ',     2.837,     0.000,     0.000,     0.000,1.00000,     0,     6.250, 0.00000E+0, 2.90000E-1, 0.00000E+0, 0.00000E+0,1.00000,1,  100.0,     5.000,     0.000,   2,1.0000
  3129,'1 ',     0.156,    -0.487,     0.563,    -0.563,1.00000,     0,     0.938, 0.00000E+0, 2.90000E-1, 0.00000E+0, 0.00000E+0,1.00000,1,  100.0,     0.750,     0.000,   2,1.0000
  3139,'1 ',     1.000,     0.560,     8.250,    -8.250,1.01000,     0,    13.750, 0.00000E+0, 2.90000E-1, 0.00000E+0, 0.00000E+0,1.00000,1,  100.0,    11.000,     0.000,   2,1.0000
  3141,'1 ',     8.000,     6.190,     6.190,    -6.190,1.01000,     0,    11.760, 0.00000E+0, 1.00000E+0, 0.00000E+0, 0.00000E+0,1.00000,1,  100.0,    10.000,     0.000,   1,1.0000
  3142,'1 ',     0.000,     0.000,     0.000,     0.000,1.00000,     0,    20.000, 0.00000E+0, 1.93100E-1, 0.00000E+0, 0.00000E+0,1.00000,0,  100.0,    16.000,     0.000,   2,1.0000
  3143,'1 ',     0.000,    -1.043,    10.500,   -10.500,1.00000,     0,    17.500, 0.00000E+0, 2.20000E-1, 0.00000E+0, 0.00000E+0,1.00000,0,  100.0,    14.000,     0.000,   2,1.0000
  3144,'1 ',     0.000,     0.000,     0.000,     0.000,1.00000,     0,     7.500, 0.00000E+0, 2.70000E-1, 0.00000E+0, 0.00000E+0,1.00000,0,  100.0,     6.000,     0.000,   1,1.0000
  3146,'1 ',     3.000,     1.833,     4.656,    -4.656,1.00000,     0,     7.760, 0.00000E+0, 2.90000E-1, 0.00000E+0, 0.00000E+0,1.00000,1,  100.0,     6.208,     0.000,   2,1.0000
  3146,'2 ',     0.000,     0.433,     4.656,    -4.656,1.00000,     0,     7.760, 0.00000E+0, 2.90000E-1, 0.00000E+0, 0.00000E+0,1.00000,0,  100.0,     6.208,     0.000,   2,1.0000
  3148,'1 ',    18.390,     4.097,    14.520,   -14.520,1.00000,     0,    33.300, 0.00000E+0, 2.08000E-1, 0.00000E+0, 0.00000E+0,1.00000,1,  100.0,    30.000,     0.000,   2,1.0000
  3153,'1 ',     2.394,     0.000,     0.000,     0.000,1.00000,     0,    10.750, 0.00000E+0, 2.70000E-1, 0.00000E+0, 0.00000E+0,1.00000,1,  100.0,     9.000,     0.000,   2,1.0000
  3154,'1 ',     0.000,     0.000,     0.000,     0.000,1.00000,     0,     5.000, 0.00000E+0, 2.70000E-1, 0.00000E+0, 0.00000E+0,1.00000,0,  100.0,     4.000,     0.000,   2,1.0000
  3156,'1 ',     0.000,    -0.288,     0.288,    -0.288,1.01000,     0,     0.600, 0.00000E+0, 2.90000E-1, 0.00000E+0, 0.00000E+0,1.00000,0,  100.0,     0.480,     0.000,   2,1.0000
  3158,'1 ',     1.429,     0.000,     0.000,     0.000,1.00000,     0,     5.300, 0.00000E+0, 2.70000E-1, 0.00000E+0, 0.00000E+0,1.00000,1,  100.0,     5.300,     0.000,   2,1.0000
  3162,'1 ',     2.000,     0.000,     0.000,     0.000,1.00000,     0,    15.000, 0.00000E+0, 2.90000E-1, 0.00000E+0, 0.00000E+0,1.00000,1,  100.0,    12.000,     0.000,   1,1.0000
  3163,'1 ',     0.000,    -0.514,     2.100,    -2.100,1.01000,     0,     4.375, 0.00000E+0, 2.90000E-1, 0.00000E+0, 0.00000E+0,1.00000,0,  100.0,     3.500,     0.000,   2,1.0000
  3165,'1 ',     0.586,     0.000,     0.000,     0.000,1.00000,     0,     1.125, 0.00000E+0, 2.90000E-1, 0.00000E+0, 0.00000E+0,1.00000,1,  100.0,     0.900,     0.000,   1,1.0000
  3166,'1 ',     5.000,     1.719,     4.800,    -4.800,1.00000,     0,    10.000, 0.00000E+0, 2.90000E-1, 0.00000E+0, 0.00000E+0,1.00000,1,  100.0,     8.000,     0.000,   2,1.0000
  3167,'1 ',    10.000,     0.060,     6.000,    -6.000,1.00000,     0,    12.500, 0.00000E+0, 2.90000E-1, 0.00000E+0, 0.00000E+0,1.00000,1,  100.0,    10.000,     0.000,   2,1.0000
  3168,'1 ',     0.620,     0.000,     0.000,     0.000,1.00000,     0,     0.900, 0.00000E+0, 2.90000E-1, 0.00000E+0, 0.00000E+0,1.00000,1,  100.0,     0.720,     0.000,   2,1.0000
  3169,'1 ',     1.505,     0.352,     1.080,    -1.080,1.00000,     0,     2.250, 0.00000E+0, 2.90000E-1, 0.00000E+0, 0.00000E+0,1.00000,1,  100.0,     1.800,     0.000,   1,1.0000
  3171,'1 ',     6.000,     0.000,     0.000,     0.000,1.00000,     0,     7.770, 0.00000E+0, 2.70000E-1, 0.00000E+0, 0.00000E+0,1.00000,1,  100.0,     7.500,     0.000,   1,1.0000
  3173,'1 ',     0.000,     0.100,     0.100,    -0.100,1.00000,     0,     0.625, 0.00000E+0, 2.90000E-1, 0.00000E+0, 0.00000E+0,1.00000,0,  100.0,     0.500,     0.000,   1,1.0000
  3174,'1 ',     0.000,     0.000,     0.000,     0.000,1.00000,     0,     1.875, 0.00000E+0, 2.90000E-1, 0.00000E+0, 0.00000E+0,1.00000,0,  100.0,     1.500,     0.000,   1,1.0000
  3175,'1 ',     0.000,     0.000,     0.000,     0.000,1.00000,     0,     0.375, 0.00000E+0, 2.90000E-1, 0.00000E+0, 0.00000E+0,1.00000,0,  100.0,     0.300,     0.000,   1,1.0000
  3176,'1 ',     1.600,     0.000,     0.000,     0.000,1.00000,     0,     2.630, 0.00000E+0, 2.90000E-1, 0.00000E+0, 0.00000E+0,1.00000,1,  100.0,     2.500,     0.000,   1,1.0000
  3177,'1 ',     0.000,    -0.077,     2.625,    -2.625,1.00000,     0,     4.375, 0.00000E+0, 2.70000E-1, 0.00000E+0, 0.00000E+0,1.00000,0,  100.0,     3.500,     0.000,   2,1.0000
  3181,'1 ',     0.000,    -1.003,     7.500,    -7.500,1.02000,     0,    14.450, 0.00000E+0, 2.31000E-1, 0.00000E+0, 0.00000E+0,1.00000,0,  100.0,    10.500,     0.000,   1,1.0000
  3182,'1 ',     0.000,     4.343,     4.912,    -4.912,1.00000,     0,     8.188, 0.00000E+0, 2.90000E-1, 0.00000E+0, 0.00000E+0,1.00000,0,  100.0,     6.550,     0.000,   2,1.0000
  3187,'1 ',     4.000,     0.000,     0.000,     0.000,1.00000,     0,     6.500, 0.00000E+0, 2.90000E-1, 0.00000E+0, 0.00000E+0,1.00000,1,  100.0,     6.500,     0.000,   1,1.0000
  3201,'N1',    38.557,     8.004,    12.673,   -12.673,1.04000,     0,    55.000, 9.99000E+2, 9.99000E+2, 0.00000E+0, 0.00000E+0,1.00000,1,  100.0,    50.000,     0.000,   2,1.0000,    ,      ,    ,      ,    ,      ,2, 0.9500
  3205,'1 ',    18.400,     7.724,    13.821,   -13.821,1.01000,     0,    23.035, 0.00000E+0, 1.63000E-1, 0.00000E+0, 0.00000E+0,1.00000,1,  100.0,    18.428,     0.000,   2,1.0000
  3205,'2 ',    18.400,     7.724,    13.821,   -13.821,1.01000,     0,    23.035, 0.00000E+0, 1.63000E-1, 0.00000E+0, 0.00000E+0,1.00000,1,  100.0,    18.428,     0.000,   2,1.0000
  3205,'3 ',    18.400,     7.724,    13.821,   -13.821,1.01000,     0,    23.036, 0.00000E+0, 1.63000E-1, 0.00000E+0, 0.00000E+0,1.00000,1,  100.0,    18.428,     0.000,   2,1.0000
  3206,'1 ',    18.400,     7.724,    13.821,   -13.821,1.01000,     0,    23.035, 0.00000E+0, 1.63000E-1, 0.00000E+0, 0.00000E+0,1.00000,1,  100.0,    18.428,     0.000,   2,1.0000
  3206,'2 ',    18.400,     7.724,    13.821,   -13.821,1.01000,     0,    23.035, 0.00000E+0, 1.63000E-1, 0.00000E+0, 0.00000E+0,1.00000,1,  100.0,    18.428,     0.000,   2,1.0000
  3206,'3 ',    18.400,     7.724,    13.821,   -13.821,1.01000,     0,    23.035, 0.00000E+0, 1.63000E-1, 0.00000E+0, 0.00000E+0,1.00000,1,  100.0,    18.428,     0.000,   2,1.0000
  3207,'1 ',    18.400,     7.724,    13.821,   -13.821,1.01000,     0,    23.035, 0.00000E+0, 1.63000E-1, 0.00000E+0, 0.00000E+0,1.00000,1,  100.0,    18.428,     0.000,   2,1.0000
  3207,'2 ',    18.400,     7.724,    13.821,   -13.821,1.01000,     0,    23.035, 0.00000E+0, 1.63000E-1, 0.00000E+0, 0.00000E+0,1.00000,1,  100.0,    18.428,     0.000,   2,1.0000
  3207,'3 ',    18.400,     7.724,    13.821,   -13.821,1.01000,     0,    23.035, 0.00000E+0, 1.63000E-1, 0.00000E+0, 0.00000E+0,1.00000,1,  100.0,    18.428,     0.000,   2,1.0000
  3208,'1 ',    18.400,     7.724,    13.821,   -13.821,1.01000,     0,    23.035, 0.00000E+0, 1.63000E-1, 0.00000E+0, 0.00000E+0,1.00000,1,  100.0,    18.428,     0.000,   2,1.0000
  3208,'2 ',    18.400,     7.724,    13.821,   -13.821,1.01000,     0,    23.035, 0.00000E+0, 1.63000E-1, 0.00000E+0, 0.00000E+0,1.00000,1,  100.0,    18.428,     0.000,   2,1.0000
  3208,'3 ',    18.400,     7.724,    13.821,   -13.821,1.01000,     0,    23.035, 0.00000E+0, 1.63000E-1, 0.00000E+0, 0.00000E+0,1.00000,1,  100.0,    18.428,     0.000,   2,1.0000
  3209,'1 ',     0.000,    10.131,    13.821,   -13.821,1.01000,     0,    23.021, 0.00000E+0, 1.63000E-1, 0.00000E+0, 0.00000E+0,1.00000,0,  100.0,    18.428,     0.000,   2,1.0000
  3209,'2 ',     0.000,    10.131,    13.821,   -13.821,1.01000,     0,    23.021, 0.00000E+0, 1.63000E-1, 0.00000E+0, 0.00000E+0,1.00000,0,  100.0,    18.428,     0.000,   2,1.0000
  3210,'1 ',     0.000,     3.247,     3.247,    -3.247,1.02000,     0,    12.200, 0.00000E+0, 8.00000E-1, 0.00000E+0, 0.00000E+0,1.00000,0,  100.0,    12.000,     0.000,   2,1.0000,    ,      ,    ,      ,    ,      ,1, 1.0000
  3214,'1 ',    35.000,    27.800,    27.800,   -27.800,1.00000,     0,    41.176, 0.00000E+0, 1.90000E-1, 0.00000E+0, 0.00000E+0,1.00000,1,  100.0,    40.000,     0.000,   2,1.0000
  3215,'1 ',     1.675,     0.000,     0.000,     0.000,1.00000,     0,     2.130, 0.00000E+0, 2.90000E-1, 0.00000E+0, 0.00000E+0,1.00000,1,  100.0,     2.000,     0.000,   1,1.0000
  3218,'1 ',     5.142,     1.000,     1.000,    -1.000,1.00000,     0,     9.800, 0.00000E+0, 2.90000E-1, 0.00000E+0, 0.00000E+0,1.00000,1,  100.0,     8.330,     0.000,   2,1.0000
  3220,'1 ',    15.000,     8.109,    11.000,     0.000,1.02000,     0,    21.290, 0.00000E+0, 1.24000E-1, 0.00000E+0, 0.00000E+0,1.00000,1,  100.0,    18.100,     7.000,   2,1.0000
  3221,'ES',     3.932,    -1.292,     1.292,    -1.292,1.00000,     0,     6.570, 9.99000E+2, 9.99000E+2, 0.00000E+0, 0.00000E+0,1.00000,1,  100.0,     6.250,     0.000,   1,1.0000,    ,      ,    ,      ,    ,      ,2, 0.9500
  3221,'FP',     0.000,    -0.680,     3.287,    -3.287,1.00000,     0,    10.520, 9.99000E+2, 9.99000E+2, 0.00000E+0, 0.00000E+0,1.00000,0,  100.0,    10.000,     0.000,   1,1.0000,    ,      ,    ,      ,    ,      ,2, 0.9500
  3221,'GE',     0.000,    -0.766,     3.698,    -3.698,1.00000,     0,    11.840, 9.99000E+2, 9.99000E+2, 0.00000E+0, 0.00000E+0,1.00000,0,  100.0,    11.250,     0.000,   1,1.0000,    ,      ,    ,      ,    ,      ,2, 0.9500
  3221,'SL',     2.542,    -0.836,     0.836,    -0.836,1.00000,     0,     5.260, 9.99000E+2, 9.99000E+2, 0.00000E+0, 0.00000E+0,1.00000,1,  100.0,     5.000,     0.000,   1,1.0000,    ,      ,    ,      ,    ,      ,2, 0.9500
  3221,'SU',     6.984,    -2.296,     2.296,    -2.296,1.00000,     0,    11.840, 9.99000E+2, 9.99000E+2, 0.00000E+0, 0.00000E+0,1.00000,1,  100.0,    11.250,     0.000,   1,1.0000,    ,      ,    ,      ,    ,      ,2, 0.9500
  3222,'N2',    39.434,    12.123,    12.961,   -12.961,1.02000,     0,    55.000, 9.99000E+2, 9.99000E+2, 0.00000E+0, 0.00000E+0,1.00000,1,  100.0,    50.000,     0.000,   1,1.0000,    ,      ,    ,      ,    ,      ,2, 0.9500
...